<?xml version="1.0" encoding="UTF-8"?>

<!-- generated on 2026-04-27T04:23:15.354564+03:00 by Eclipse SUMO GUI 1.26.0
-->

<sumoConfiguration xmlns:xsi="http://www.w3.org/2001/XMLSchema-instance" xsi:noNamespaceSchemaLocation="http://sumo.dlr.de/xsd/sumoConfiguration.xsd">

    <input>
        <net-file value="gridnet3x3.net.xml"/>
        <route-files value="routes.rou.xml"/>
    </input>

</sumoConfiguration>
