<routes>
    <vType id="car" accel="1.0" decel="4.5" maxSpeed="13.9"/>

    <flow id="f0"
          type="car"
          from="right1C1"
          to="A0bottom0"
          probability="0.005833"
          departLane="random"
          departSpeed="random"/>
        
    <flow id="f1"
          type="car"
          from="left0A0"
          to="A1left1"
          probability="0.005278"
          departLane="random"
          departSpeed="random"/>
        
    <flow id="f2"
          type="car"
          from="right2C2"
          to="C0right0"
          probability="0.006667"
          departLane="random"
          departSpeed="random"/>
        
    <flow id="f3"
          type="car"
          from="top1B2"
          to="A0left0"
          probability="0.009167"
          departLane="random"
          departSpeed="random"/>
        
    <flow id="f4"
          type="car"
          from="left2A2"
          to="A0bottom0"
          probability="0.005000"
          departLane="random"
          departSpeed="random"/>
        
    <flow id="f5"
          type="car"
          from="bottom2C0"
          to="B2top1"
          probability="0.006111"
          departLane="random"
          departSpeed="random"/>
        
    <flow id="f6"
          type="car"
          from="bottom0A0"
          to="A1left1"
          probability="0.006389"
          departLane="random"
          departSpeed="random"/>
        
    <flow id="f7"
          type="car"
          from="right1C1"
          to="B2top1"
          probability="0.007500"
          departLane="random"
          departSpeed="random"/>
        
    <flow id="f8"
          type="car"
          from="bottom2C0"
          to="C0bottom2"
          probability="0.003889"
          departLane="random"
          departSpeed="random"/>
        
    <flow id="f9"
          type="car"
          from="top0A2"
          to="A0bottom0"
          probability="0.006667"
          departLane="random"
          departSpeed="random"/>
        
    <flow id="f10"
          type="car"
          from="top0A2"
          to="C0right0"
          probability="0.008333"
          departLane="random"
          departSpeed="random"/>
        
    <flow id="f11"
          type="car"
          from="left1A1"
          to="A0left0"
          probability="0.006944"
          departLane="random"
          departSpeed="random"/>
        
    <flow id="f12"
          type="car"
          from="top2C2"
          to="A2top0"
          probability="0.005833"
          departLane="random"
          departSpeed="random"/>
        
    <flow id="f13"
          type="car"
          from="bottom1B0"
          to="A0left0"
          probability="0.009167"
          departLane="random"
          departSpeed="random"/>
        
    <flow id="f14"
          type="car"
          from="top1B2"
          to="C0bottom2"
          probability="0.005278"
          departLane="random"
          departSpeed="random"/>
        
    <flow id="f15"
          type="car"
          from="right0C0"
          to="C2top2"
          probability="0.008333"
          departLane="random"
          departSpeed="random"/>
        
    <flow id="f16"
          type="car"
          from="left1A1"
          to="B2top1"
          probability="0.010556"
          departLane="random"
          departSpeed="random"/>
        
    <flow id="f17"
          type="car"
          from="top0A2"
          to="C0bottom2"
          probability="0.008056"
          departLane="random"
          departSpeed="random"/>
        
    <flow id="f18"
          type="car"
          from="top1B2"
          to="B2top1"
          probability="0.006944"
          departLane="random"
          departSpeed="random"/>
        
    <flow id="f19"
          type="car"
          from="right2C2"
          to="A0bottom0"
          probability="0.005556"
          departLane="random"
          departSpeed="random"/>
        
    <flow id="f20"
          type="car"
          from="bottom2C0"
          to="A2left2"
          probability="0.005833"
          departLane="random"
          departSpeed="random"/>
        
    <flow id="f21"
          type="car"
          from="bottom1B0"
          to="A2left2"
          probability="0.009444"
          departLane="random"
          departSpeed="random"/>
        
    <flow id="f22"
          type="car"
          from="right1C1"
          to="A2top0"
          probability="0.008056"
          departLane="random"
          departSpeed="random"/>
        
    <flow id="f23"
          type="car"
          from="left1A1"
          to="A1left1"
          probability="0.003611"
          departLane="random"
          departSpeed="random"/>
        
    <flow id="f24"
          type="car"
          from="left0A0"
          to="C2top2"
          probability="0.007222"
          departLane="random"
          departSpeed="random"/>
        
    <flow id="f25"
          type="car"
          from="right1C1"
          to="C0bottom2"
          probability="0.007222"
          departLane="random"
          departSpeed="random"/>
        
    <flow id="f26"
          type="car"
          from="bottom2C0"
          to="C0right0"
          probability="0.008611"
          departLane="random"
          departSpeed="random"/>
        
    <flow id="f27"
          type="car"
          from="bottom1B0"
          to="A2top0"
          probability="0.005556"
          departLane="random"
          departSpeed="random"/>
        
    <flow id="f28"
          type="car"
          from="top2C2"
          to="C0bottom2"
          probability="0.006389"
          departLane="random"
          departSpeed="random"/>
        
    <flow id="f29"
          type="car"
          from="right0C0"
          to="C0right0"
          probability="0.005000"
          departLane="random"
          departSpeed="random"/>
        
    <flow id="f30"
          type="car"
          from="top1B2"
          to="C1right1"
          probability="0.005000"
          departLane="random"
          departSpeed="random"/>
        
    <flow id="f31"
          type="car"
          from="bottom2C0"
          to="A0bottom0"
          probability="0.007778"
          departLane="random"
          departSpeed="random"/>
        
    <flow id="f32"
          type="car"
          from="left0A0"
          to="A2left2"
          probability="0.008056"
          departLane="random"
          departSpeed="random"/>
        
    <flow id="f33"
          type="car"
          from="bottom2C0"
          to="C2top2"
          probability="0.005833"
          departLane="random"
          departSpeed="random"/>
        
    <flow id="f34"
          type="car"
          from="top1B2"
          to="A2left2"
          probability="0.008611"
          departLane="random"
          departSpeed="random"/>
        
    <flow id="f35"
          type="car"
          from="top1B2"
          to="B0bottom1"
          probability="0.007500"
          departLane="random"
          departSpeed="random"/>
        
    <flow id="f36"
          type="car"
          from="right0C0"
          to="A2left2"
          probability="0.007222"
          departLane="random"
          departSpeed="random"/>
        
    <flow id="f37"
          type="car"
          from="right1C1"
          to="C2right2"
          probability="0.010278"
          departLane="random"
          departSpeed="random"/>
        
    <flow id="f38"
          type="car"
          from="top2C2"
          to="B2top1"
          probability="0.007500"
          departLane="random"
          departSpeed="random"/>
        
    <flow id="f39"
          type="car"
          from="bottom1B0"
          to="A0bottom0"
          probability="0.007222"
          departLane="random"
          departSpeed="random"/>
        
    <flow id="f40"
          type="car"
          from="bottom1B0"
          to="C0bottom2"
          probability="0.007500"
          departLane="random"
          departSpeed="random"/>
        
    <flow id="f41"
          type="car"
          from="top0A2"
          to="B0bottom1"
          probability="0.007778"
          departLane="random"
          departSpeed="random"/>
        
    <flow id="f42"
          type="car"
          from="bottom0A0"
          to="A2top0"
          probability="0.005278"
          departLane="random"
          departSpeed="random"/>
        
    <flow id="f43"
          type="car"
          from="top2C2"
          to="C2right2"
          probability="0.006111"
          departLane="random"
          departSpeed="random"/>
        
    <flow id="f44"
          type="car"
          from="bottom0A0"
          to="C0right0"
          probability="0.005833"
          departLane="random"
          departSpeed="random"/>
        
    <flow id="f45"
          type="car"
          from="right2C2"
          to="B2top1"
          probability="0.008611"
          departLane="random"
          departSpeed="random"/>
        
    <flow id="f46"
          type="car"
          from="left0A0"
          to="C0bottom2"
          probability="0.006667"
          departLane="random"
          departSpeed="random"/>
        
    <flow id="f47"
          type="car"
          from="bottom1B0"
          to="B0bottom1"
          probability="0.008611"
          departLane="random"
          departSpeed="random"/>
        
    <flow id="f48"
          type="car"
          from="left2A2"
          to="C2top2"
          probability="0.006667"
          departLane="random"
          departSpeed="random"/>
        
    <flow id="f49"
          type="car"
          from="right0C0"
          to="A1left1"
          probability="0.008056"
          departLane="random"
          departSpeed="random"/>
        
    <flow id="f50"
          type="car"
          from="top1B2"
          to="C2right2"
          probability="0.007778"
          departLane="random"
          departSpeed="random"/>
        
    <flow id="f51"
          type="car"
          from="right1C1"
          to="A0left0"
          probability="0.006944"
          departLane="random"
          departSpeed="random"/>
        
    <flow id="f52"
          type="car"
          from="top0A2"
          to="B2top1"
          probability="0.008056"
          departLane="random"
          departSpeed="random"/>
        
    <flow id="f53"
          type="car"
          from="bottom0A0"
          to="A2left2"
          probability="0.006111"
          departLane="random"
          departSpeed="random"/>
        
    <flow id="f54"
          type="car"
          from="bottom0A0"
          to="C2top2"
          probability="0.007500"
          departLane="random"
          departSpeed="random"/>
        
    <flow id="f55"
          type="car"
          from="left0A0"
          to="A0bottom0"
          probability="0.006944"
          departLane="random"
          departSpeed="random"/>
        
    <flow id="f56"
          type="car"
          from="top1B2"
          to="C2top2"
          probability="0.003889"
          departLane="random"
          departSpeed="random"/>
        
    <flow id="f57"
          type="car"
          from="bottom0A0"
          to="C1right1"
          probability="0.009444"
          departLane="random"
          departSpeed="random"/>
        
    <flow id="f58"
          type="car"
          from="top0A2"
          to="A0left0"
          probability="0.006111"
          departLane="random"
          departSpeed="random"/>
        
    <flow id="f59"
          type="car"
          from="left2A2"
          to="B2top1"
          probability="0.007500"
          departLane="random"
          departSpeed="random"/>
        
    <flow id="f60"
          type="car"
          from="left0A0"
          to="C2right2"
          probability="0.005833"
          departLane="random"
          departSpeed="random"/>
        
    <flow id="f61"
          type="car"
          from="left2A2"
          to="A1left1"
          probability="0.007778"
          departLane="random"
          departSpeed="random"/>
        
    <flow id="f62"
          type="car"
          from="bottom1B0"
          to="A1left1"
          probability="0.007778"
          departLane="random"
          departSpeed="random"/>
        
    <flow id="f63"
          type="car"
          from="left1A1"
          to="C0bottom2"
          probability="0.007778"
          departLane="random"
          departSpeed="random"/>
        
    <flow id="f64"
          type="car"
          from="bottom2C0"
          to="A1left1"
          probability="0.006111"
          departLane="random"
          departSpeed="random"/>
        
    <flow id="f65"
          type="car"
          from="bottom0A0"
          to="C0bottom2"
          probability="0.006389"
          departLane="random"
          departSpeed="random"/>
        
    <flow id="f66"
          type="car"
          from="bottom2C0"
          to="C2right2"
          probability="0.006944"
          departLane="random"
          departSpeed="random"/>
        
    <flow id="f67"
          type="car"
          from="top1B2"
          to="A0bottom0"
          probability="0.005556"
          departLane="random"
          departSpeed="random"/>
        
    <flow id="f68"
          type="car"
          from="bottom2C0"
          to="A0left0"
          probability="0.006111"
          departLane="random"
          departSpeed="random"/>
        
    <flow id="f69"
          type="car"
          from="left2A2"
          to="C1right1"
          probability="0.006389"
          departLane="random"
          departSpeed="random"/>
        
    <flow id="f70"
          type="car"
          from="top0A2"
          to="A1left1"
          probability="0.006389"
          departLane="random"
          departSpeed="random"/>
        
    <flow id="f71"
          type="car"
          from="left2A2"
          to="B0bottom1"
          probability="0.006944"
          departLane="random"
          departSpeed="random"/>
        
    <flow id="f72"
          type="car"
          from="top2C2"
          to="A0left0"
          probability="0.008333"
          departLane="random"
          departSpeed="random"/>
        
    <flow id="f73"
          type="car"
          from="left1A1"
          to="A2top0"
          probability="0.008889"
          departLane="random"
          departSpeed="random"/>
        
    <flow id="f74"
          type="car"
          from="top1B2"
          to="A1left1"
          probability="0.006667"
          departLane="random"
          departSpeed="random"/>
        
    <flow id="f75"
          type="car"
          from="bottom2C0"
          to="B0bottom1"
          probability="0.005556"
          departLane="random"
          departSpeed="random"/>
        
    <flow id="f76"
          type="car"
          from="left2A2"
          to="A2left2"
          probability="0.007222"
          departLane="random"
          departSpeed="random"/>
        
    <flow id="f77"
          type="car"
          from="left2A2"
          to="C2right2"
          probability="0.010000"
          departLane="random"
          departSpeed="random"/>
        
    <flow id="f78"
          type="car"
          from="right0C0"
          to="A0bottom0"
          probability="0.006667"
          departLane="random"
          departSpeed="random"/>
        
    <flow id="f79"
          type="car"
          from="top2C2"
          to="C2top2"
          probability="0.007778"
          departLane="random"
          departSpeed="random"/>
        
    <flow id="f80"
          type="car"
          from="left1A1"
          to="A0bottom0"
          probability="0.005833"
          departLane="random"
          departSpeed="random"/>
        
    <flow id="f81"
          type="car"
          from="left1A1"
          to="C2top2"
          probability="0.006111"
          departLane="random"
          departSpeed="random"/>
        
    <flow id="f82"
          type="car"
          from="left0A0"
          to="C1right1"
          probability="0.008056"
          departLane="random"
          departSpeed="random"/>
        
    <flow id="f83"
          type="car"
          from="right0C0"
          to="C2right2"
          probability="0.005833"
          departLane="random"
          departSpeed="random"/>
        
    <flow id="f84"
          type="car"
          from="bottom1B0"
          to="C2top2"
          probability="0.007500"
          departLane="random"
          departSpeed="random"/>
        
    <flow id="f85"
          type="car"
          from="right1C1"
          to="C0right0"
          probability="0.005278"
          departLane="random"
          departSpeed="random"/>
        
    <flow id="f86"
          type="car"
          from="left2A2"
          to="C0bottom2"
          probability="0.009167"
          departLane="random"
          departSpeed="random"/>
        
    <flow id="f87"
          type="car"
          from="bottom2C0"
          to="A2top0"
          probability="0.006389"
          departLane="random"
          departSpeed="random"/>
        
    <flow id="f88"
          type="car"
          from="right2C2"
          to="A2left2"
          probability="0.009444"
          departLane="random"
          departSpeed="random"/>
        
    <flow id="f89"
          type="car"
          from="bottom0A0"
          to="B0bottom1"
          probability="0.004444"
          departLane="random"
          departSpeed="random"/>
        
    <flow id="f90"
          type="car"
          from="top1B2"
          to="C0right0"
          probability="0.005000"
          departLane="random"
          departSpeed="random"/>
        
    <flow id="f91"
          type="car"
          from="right1C1"
          to="C2top2"
          probability="0.005833"
          departLane="random"
          departSpeed="random"/>
        
    <flow id="f92"
          type="car"
          from="top0A2"
          to="A2left2"
          probability="0.007500"
          departLane="random"
          departSpeed="random"/>
        
    <flow id="f93"
          type="car"
          from="bottom1B0"
          to="B2top1"
          probability="0.006944"
          departLane="random"
          departSpeed="random"/>
        
    <flow id="f94"
          type="car"
          from="right2C2"
          to="A1left1"
          probability="0.005833"
          departLane="random"
          departSpeed="random"/>
        
    <flow id="f95"
          type="car"
          from="right1C1"
          to="A2left2"
          probability="0.008889"
          departLane="random"
          departSpeed="random"/>
        
    <flow id="f96"
          type="car"
          from="bottom0A0"
          to="C2right2"
          probability="0.006667"
          departLane="random"
          departSpeed="random"/>
        
    <flow id="f97"
          type="car"
          from="top0A2"
          to="C2right2"
          probability="0.006667"
          departLane="random"
          departSpeed="random"/>
        
    <flow id="f98"
          type="car"
          from="bottom2C0"
          to="C1right1"
          probability="0.007500"
          departLane="random"
          departSpeed="random"/>
        
    <flow id="f99"
          type="car"
          from="top2C2"
          to="A2left2"
          probability="0.007222"
          departLane="random"
          departSpeed="random"/>
        
    <flow id="f100"
          type="car"
          from="top2C2"
          to="A1left1"
          probability="0.005000"
          departLane="random"
          departSpeed="random"/>
        
    <flow id="f101"
          type="car"
          from="left0A0"
          to="C0right0"
          probability="0.010278"
          departLane="random"
          departSpeed="random"/>
        
    <flow id="f102"
          type="car"
          from="left0A0"
          to="A2top0"
          probability="0.007778"
          departLane="random"
          departSpeed="random"/>
        
    <flow id="f103"
          type="car"
          from="left1A1"
          to="A2left2"
          probability="0.006667"
          departLane="random"
          departSpeed="random"/>
        
    <flow id="f104"
          type="car"
          from="top2C2"
          to="C0right0"
          probability="0.006389"
          departLane="random"
          departSpeed="random"/>
        
    <flow id="f105"
          type="car"
          from="left0A0"
          to="B2top1"
          probability="0.004444"
          departLane="random"
          departSpeed="random"/>
        
    <flow id="f106"
          type="car"
          from="right1C1"
          to="B0bottom1"
          probability="0.006667"
          departLane="random"
          departSpeed="random"/>
        
    <flow id="f107"
          type="car"
          from="top0A2"
          to="C1right1"
          probability="0.006667"
          departLane="random"
          departSpeed="random"/>
        
    <flow id="f108"
          type="car"
          from="right2C2"
          to="C2top2"
          probability="0.008056"
          departLane="random"
          departSpeed="random"/>
        
    <flow id="f109"
          type="car"
          from="right0C0"
          to="A0left0"
          probability="0.004167"
          departLane="random"
          departSpeed="random"/>
        
    <flow id="f110"
          type="car"
          from="left1A1"
          to="C1right1"
          probability="0.007222"
          departLane="random"
          departSpeed="random"/>
        
    <flow id="f111"
          type="car"
          from="left2A2"
          to="C0right0"
          probability="0.007222"
          departLane="random"
          departSpeed="random"/>
        
    <flow id="f112"
          type="car"
          from="right0C0"
          to="C0bottom2"
          probability="0.006667"
          departLane="random"
          departSpeed="random"/>
        
    <flow id="f113"
          type="car"
          from="left1A1"
          to="C0right0"
          probability="0.008611"
          departLane="random"
          departSpeed="random"/>
        
    <flow id="f114"
          type="car"
          from="left2A2"
          to="A0left0"
          probability="0.007222"
          departLane="random"
          departSpeed="random"/>
        
    <flow id="f115"
          type="car"
          from="top0A2"
          to="A2top0"
          probability="0.006389"
          departLane="random"
          departSpeed="random"/>
        
    <flow id="f116"
          type="car"
          from="bottom0A0"
          to="B2top1"
          probability="0.007778"
          departLane="random"
          departSpeed="random"/>
        
    <flow id="f117"
          type="car"
          from="right1C1"
          to="C1right1"
          probability="0.008611"
          departLane="random"
          departSpeed="random"/>
        
    <flow id="f118"
          type="car"
          from="bottom0A0"
          to="A0left0"
          probability="0.009167"
          departLane="random"
          departSpeed="random"/>
        
    <flow id="f119"
          type="car"
          from="bottom1B0"
          to="C0right0"
          probability="0.008333"
          departLane="random"
          departSpeed="random"/>
        
    <flow id="f120"
          type="car"
          from="right2C2"
          to="C1right1"
          probability="0.005833"
          departLane="random"
          departSpeed="random"/>
        
    <flow id="f121"
          type="car"
          from="right2C2"
          to="A0left0"
          probability="0.010000"
          departLane="random"
          departSpeed="random"/>
        
    <flow id="f122"
          type="car"
          from="top0A2"
          to="C2top2"
          probability="0.006389"
          departLane="random"
          departSpeed="random"/>
        
    <flow id="f123"
          type="car"
          from="right2C2"
          to="C0bottom2"
          probability="0.009167"
          departLane="random"
          departSpeed="random"/>
        
    <flow id="f124"
          type="car"
          from="bottom1B0"
          to="C1right1"
          probability="0.005556"
          departLane="random"
          departSpeed="random"/>
        
    <flow id="f125"
          type="car"
          from="left2A2"
          to="A2top0"
          probability="0.006389"
          departLane="random"
          departSpeed="random"/>
        
    <flow id="f126"
          type="car"
          from="right0C0"
          to="A2top0"
          probability="0.007222"
          departLane="random"
          departSpeed="random"/>
        
    <flow id="f127"
          type="car"
          from="right2C2"
          to="B0bottom1"
          probability="0.006389"
          departLane="random"
          departSpeed="random"/>
        
    <flow id="f128"
          type="car"
          from="right0C0"
          to="B0bottom1"
          probability="0.007500"
          departLane="random"
          departSpeed="random"/>
        
    <flow id="f129"
          type="car"
          from="left1A1"
          to="C2right2"
          probability="0.005000"
          departLane="random"
          departSpeed="random"/>
        
    <flow id="f130"
          type="car"
          from="left0A0"
          to="A0left0"
          probability="0.006944"
          departLane="random"
          departSpeed="random"/>
        
    <flow id="f131"
          type="car"
          from="right0C0"
          to="C1right1"
          probability="0.006944"
          departLane="random"
          departSpeed="random"/>
        
    <flow id="f132"
          type="car"
          from="top2C2"
          to="B0bottom1"
          probability="0.006944"
          departLane="random"
          departSpeed="random"/>
        
    <flow id="f133"
          type="car"
          from="right2C2"
          to="C2right2"
          probability="0.006389"
          departLane="random"
          departSpeed="random"/>
        
    <flow id="f134"
          type="car"
          from="right1C1"
          to="A1left1"
          probability="0.008611"
          departLane="random"
          departSpeed="random"/>
        
    <flow id="f135"
          type="car"
          from="right0C0"
          to="B2top1"
          probability="0.005000"
          departLane="random"
          departSpeed="random"/>
        
    <flow id="f136"
          type="car"
          from="right2C2"
          to="A2top0"
          probability="0.005556"
          departLane="random"
          departSpeed="random"/>
        
    <flow id="f137"
          type="car"
          from="top2C2"
          to="C1right1"
          probability="0.006667"
          departLane="random"
          departSpeed="random"/>
        
    <flow id="f138"
          type="car"
          from="left0A0"
          to="B0bottom1"
          probability="0.005556"
          departLane="random"
          departSpeed="random"/>
        
    <flow id="f139"
          type="car"
          from="bottom1B0"
          to="C2right2"
          probability="0.006944"
          departLane="random"
          departSpeed="random"/>
        
    <flow id="f140"
          type="car"
          from="top2C2"
          to="A0bottom0"
          probability="0.007778"
          departLane="random"
          departSpeed="random"/>
        
    <flow id="f141"
          type="car"
          from="left1A1"
          to="B0bottom1"
          probability="0.006111"
          departLane="random"
          departSpeed="random"/>
        
    <flow id="f142"
          type="car"
          from="bottom0A0"
          to="A0bottom0"
          probability="0.004722"
          departLane="random"
          departSpeed="random"/>
        
    <flow id="f143"
          type="car"
          from="top1B2"
          to="A2top0"
          probability="0.005000"
          departLane="random"
          departSpeed="random"/>
        
</routes>
