<?xml version="1.0" encoding="UTF-8"?>

<!-- generated on 2026-02-15T19:46:36.249927+03:00 by Eclipse SUMO sumo 1.26.0
-->

<sumoConfiguration xmlns:xsi="http://www.w3.org/2001/XMLSchema-instance" xsi:noNamespaceSchemaLocation="http://sumo.dlr.de/xsd/sumoConfiguration.xsd">

    <input>
        <net-file value="medium.net.xml"/>
        <route-files value="routes.rou.xml"/>
    </input>

</sumoConfiguration>
