<?xml version="1.0" encoding="UTF-8"?>

<!-- generated on 2026-05-11 17:00:24.088114 by Eclipse SUMO randomTrips.py v1_26_0+0000-fa7df22d7f1
<configuration>
    <net-file value=".\maps\gridnet\gridnet.net.xml"/>
    <route-file value=".\maps\gridnet\routes.rou.xml"/>
    <fringe-factor value="max"/>
    <fringe-junctions value="True"/>
    <period value="1.0"/>
</configuration>
-->

<!-- generated on 2026-05-11T17:00:24.013244+03:00 by Eclipse SUMO duarouter 1.26.0
<duarouterConfiguration xmlns:xsi="http://www.w3.org/2001/XMLSchema-instance" xsi:noNamespaceSchemaLocation="http://sumo.dlr.de/xsd/duarouterConfiguration.xsd">

    <input>
        <net-file value=".\maps\gridnet\gridnet.net.xml"/>
        <route-files value="trips.trips.xml"/>
    </input>

    <output>
        <output-file value=".\maps\gridnet\routes.rou.xml"/>
        <alternatives-output value="NUL"/>
    </output>

    <time>
        <begin value="0"/>
        <end value="3600"/>
    </time>

    <report>
        <no-warnings value="true"/>
        <ignore-errors value="true"/>
        <no-step-log value="true"/>
    </report>

</duarouterConfiguration>
-->

<routes xmlns:xsi="http://www.w3.org/2001/XMLSchema-instance" xsi:noNamespaceSchemaLocation="http://sumo.dlr.de/xsd/routes_file.xsd">
</routes>
