<routes>
    <vType id="car" accel="1.0" decel="4.5" maxSpeed="13.9"/>

    <flow id="f0"
          type="car"
          from="B2B1"
          to="A0A1"
          probability="0.002264"
          departLane="random"
          departSpeed="random"/>
        
    <flow id="f1"
          type="car"
          from="A2B2"
          to="A2A1"
          probability="0.001359"
          departLane="random"
          departSpeed="random"/>
        
    <flow id="f2"
          type="car"
          from="C0B0"
          to="B2C2"
          probability="0.001359"
          departLane="random"
          departSpeed="random"/>
        
    <flow id="f3"
          type="car"
          from="C1C2"
          to="A1A0"
          probability="0.001812"
          departLane="random"
          departSpeed="random"/>
        
    <flow id="f4"
          type="car"
          from="B1A1"
          to="A0A1"
          probability="0.001812"
          departLane="random"
          departSpeed="random"/>
        
    <flow id="f5"
          type="car"
          from="A2A1"
          to="B1B2"
          probability="0.000679"
          departLane="random"
          departSpeed="random"/>
        
    <flow id="f6"
          type="car"
          from="A0A1"
          to="A1B1"
          probability="0.001812"
          departLane="random"
          departSpeed="random"/>
        
    <flow id="f7"
          type="car"
          from="B2B1"
          to="B1C1"
          probability="0.001132"
          departLane="random"
          departSpeed="random"/>
        
    <flow id="f8"
          type="car"
          from="A2A1"
          to="B2A2"
          probability="0.000453"
          departLane="random"
          departSpeed="random"/>
        
    <flow id="f9"
          type="car"
          from="C1B1"
          to="A0A1"
          probability="0.001132"
          departLane="random"
          departSpeed="random"/>
        
    <flow id="f10"
          type="car"
          from="C1B1"
          to="B2C2"
          probability="0.002717"
          departLane="random"
          departSpeed="random"/>
        
    <flow id="f11"
          type="car"
          from="B0B1"
          to="A1A2"
          probability="0.001812"
          departLane="random"
          departSpeed="random"/>
        
    <flow id="f12"
          type="car"
          from="C2B2"
          to="B0B1"
          probability="0.000679"
          departLane="random"
          departSpeed="random"/>
        
    <flow id="f13"
          type="car"
          from="C1C0"
          to="B2A2"
          probability="0.001585"
          departLane="random"
          departSpeed="random"/>
        
    <flow id="f14"
          type="car"
          from="C1B1"
          to="C0B0"
          probability="0.002491"
          departLane="random"
          departSpeed="random"/>
        
    <flow id="f15"
          type="car"
          from="B1B2"
          to="C2C1"
          probability="0.001585"
          departLane="random"
          departSpeed="random"/>
        
    <flow id="f16"
          type="car"
          from="B0C0"
          to="B1C1"
          probability="0.003397"
          departLane="random"
          departSpeed="random"/>
        
    <flow id="f17"
          type="car"
          from="C1B1"
          to="B2A2"
          probability="0.001585"
          departLane="random"
          departSpeed="random"/>
        
    <flow id="f18"
          type="car"
          from="C1C0"
          to="B1C1"
          probability="0.002717"
          departLane="random"
          departSpeed="random"/>
        
    <flow id="f19"
          type="car"
          from="B2C2"
          to="A0B0"
          probability="0.001812"
          departLane="random"
          departSpeed="random"/>
        
    <flow id="f20"
          type="car"
          from="A2A1"
          to="A2B2"
          probability="0.000906"
          departLane="random"
          departSpeed="random"/>
        
    <flow id="f21"
          type="car"
          from="A0B0"
          to="A2A1"
          probability="0.000906"
          departLane="random"
          departSpeed="random"/>
        
    <flow id="f22"
          type="car"
          from="A1A0"
          to="A2B2"
          probability="0.001359"
          departLane="random"
          departSpeed="random"/>
        
    <flow id="f23"
          type="car"
          from="B2B1"
          to="B0B1"
          probability="0.001585"
          departLane="random"
          departSpeed="random"/>
        
    <flow id="f24"
          type="car"
          from="B0B1"
          to="A2A1"
          probability="0.000453"
          departLane="random"
          departSpeed="random"/>
        
    <flow id="f25"
          type="car"
          from="A2B2"
          to="C2B2"
          probability="0.001585"
          departLane="random"
          departSpeed="random"/>
        
    <flow id="f26"
          type="car"
          from="B2B1"
          to="B2A2"
          probability="0.002491"
          departLane="random"
          departSpeed="random"/>
        
    <flow id="f27"
          type="car"
          from="A1B1"
          to="C0B0"
          probability="0.001812"
          departLane="random"
          departSpeed="random"/>
        
    <flow id="f28"
          type="car"
          from="A1A2"
          to="B0C0"
          probability="0.002038"
          departLane="random"
          departSpeed="random"/>
        
    <flow id="f29"
          type="car"
          from="C2C1"
          to="B2B1"
          probability="0.002038"
          departLane="random"
          departSpeed="random"/>
        
    <flow id="f30"
          type="car"
          from="B1C1"
          to="B2C2"
          probability="0.000679"
          departLane="random"
          departSpeed="random"/>
        
    <flow id="f31"
          type="car"
          from="C1C0"
          to="C0C1"
          probability="0.001132"
          departLane="random"
          departSpeed="random"/>
        
    <flow id="f32"
          type="car"
          from="A2A1"
          to="A0A1"
          probability="0.001132"
          departLane="random"
          departSpeed="random"/>
        
    <flow id="f33"
          type="car"
          from="B0A0"
          to="A2B2"
          probability="0.001812"
          departLane="random"
          departSpeed="random"/>
        
    <flow id="f34"
          type="car"
          from="A2A1"
          to="C2B2"
          probability="0.001132"
          departLane="random"
          departSpeed="random"/>
        
    <flow id="f35"
          type="car"
          from="C1C2"
          to="B0A0"
          probability="0.001812"
          departLane="random"
          departSpeed="random"/>
        
    <flow id="f36"
          type="car"
          from="B2B1"
          to="B0C0"
          probability="0.001812"
          departLane="random"
          departSpeed="random"/>
        
    <flow id="f37"
          type="car"
          from="C1C2"
          to="B1B0"
          probability="0.001359"
          departLane="random"
          departSpeed="random"/>
        
    <flow id="f38"
          type="car"
          from="B1C1"
          to="A2B2"
          probability="0.002038"
          departLane="random"
          departSpeed="random"/>
        
    <flow id="f39"
          type="car"
          from="B2A2"
          to="C1C2"
          probability="0.001359"
          departLane="random"
          departSpeed="random"/>
        
    <flow id="f40"
          type="car"
          from="B0C0"
          to="A2A1"
          probability="0.001132"
          departLane="random"
          departSpeed="random"/>
        
    <flow id="f41"
          type="car"
          from="C2C1"
          to="B1B2"
          probability="0.001585"
          departLane="random"
          departSpeed="random"/>
        
    <flow id="f42"
          type="car"
          from="A1A0"
          to="A0B0"
          probability="0.002491"
          departLane="random"
          departSpeed="random"/>
        
    <flow id="f43"
          type="car"
          from="A1A0"
          to="B2B1"
          probability="0.002264"
          departLane="random"
          departSpeed="random"/>
        
    <flow id="f44"
          type="car"
          from="C1B1"
          to="B1A1"
          probability="0.001585"
          departLane="random"
          departSpeed="random"/>
        
    <flow id="f45"
          type="car"
          from="A0B0"
          to="B0C0"
          probability="0.000906"
          departLane="random"
          departSpeed="random"/>
        
    <flow id="f46"
          type="car"
          from="C2C1"
          to="C1C0"
          probability="0.002264"
          departLane="random"
          departSpeed="random"/>
        
    <flow id="f47"
          type="car"
          from="A0A1"
          to="C0B0"
          probability="0.001359"
          departLane="random"
          departSpeed="random"/>
        
    <flow id="f48"
          type="car"
          from="B2C2"
          to="B1B2"
          probability="0.001585"
          departLane="random"
          departSpeed="random"/>
        
    <flow id="f49"
          type="car"
          from="A2B2"
          to="B2B1"
          probability="0.001132"
          departLane="random"
          departSpeed="random"/>
        
    <flow id="f50"
          type="car"
          from="A1A0"
          to="B1A1"
          probability="0.002264"
          departLane="random"
          departSpeed="random"/>
        
    <flow id="f51"
          type="car"
          from="B1A1"
          to="C2B2"
          probability="0.001585"
          departLane="random"
          departSpeed="random"/>
        
    <flow id="f52"
          type="car"
          from="C1C2"
          to="A2B2"
          probability="0.001359"
          departLane="random"
          departSpeed="random"/>
        
    <flow id="f53"
          type="car"
          from="B1B2"
          to="A1B1"
          probability="0.002038"
          departLane="random"
          departSpeed="random"/>
        
    <flow id="f54"
          type="car"
          from="C1C2"
          to="C1C0"
          probability="0.001359"
          departLane="random"
          departSpeed="random"/>
        
    <flow id="f55"
          type="car"
          from="B0A0"
          to="B2B1"
          probability="0.001132"
          departLane="random"
          departSpeed="random"/>
        
    <flow id="f56"
          type="car"
          from="B2A2"
          to="A1A2"
          probability="0.001585"
          departLane="random"
          departSpeed="random"/>
        
    <flow id="f57"
          type="car"
          from="C0C1"
          to="B1B2"
          probability="0.002491"
          departLane="random"
          departSpeed="random"/>
        
    <flow id="f58"
          type="car"
          from="A0A1"
          to="B0A0"
          probability="0.001812"
          departLane="random"
          departSpeed="random"/>
        
    <flow id="f59"
          type="car"
          from="A0A1"
          to="C2B2"
          probability="0.001812"
          departLane="random"
          departSpeed="random"/>
        
    <flow id="f60"
          type="car"
          from="C1C2"
          to="C1B1"
          probability="0.001359"
          departLane="random"
          departSpeed="random"/>
        
    <flow id="f61"
          type="car"
          from="B0A0"
          to="A0B0"
          probability="0.001585"
          departLane="random"
          departSpeed="random"/>
        
    <flow id="f62"
          type="car"
          from="C1C2"
          to="C2B2"
          probability="0.000679"
          departLane="random"
          departSpeed="random"/>
        
    <flow id="f63"
          type="car"
          from="A1A0"
          to="B1B0"
          probability="0.002717"
          departLane="random"
          departSpeed="random"/>
        
    <flow id="f64"
          type="car"
          from="A0B0"
          to="C0C1"
          probability="0.002038"
          departLane="random"
          departSpeed="random"/>
        
    <flow id="f65"
          type="car"
          from="C0C1"
          to="A1A2"
          probability="0.001359"
          departLane="random"
          departSpeed="random"/>
        
    <flow id="f66"
          type="car"
          from="B1B0"
          to="B1C1"
          probability="0.002264"
          departLane="random"
          departSpeed="random"/>
        
    <flow id="f67"
          type="car"
          from="A2B2"
          to="C1C0"
          probability="0.001812"
          departLane="random"
          departSpeed="random"/>
        
    <flow id="f68"
          type="car"
          from="B1A1"
          to="A2A1"
          probability="0.001132"
          departLane="random"
          departSpeed="random"/>
        
    <flow id="f69"
          type="car"
          from="B1B2"
          to="C0B0"
          probability="0.001812"
          departLane="random"
          departSpeed="random"/>
        
    <flow id="f70"
          type="car"
          from="A1B1"
          to="B0A0"
          probability="0.001132"
          departLane="random"
          departSpeed="random"/>
        
    <flow id="f71"
          type="car"
          from="B1A1"
          to="B1B2"
          probability="0.000679"
          departLane="random"
          departSpeed="random"/>
        
    <flow id="f72"
          type="car"
          from="A1A0"
          to="A2A1"
          probability="0.001359"
          departLane="random"
          departSpeed="random"/>
        
    <flow id="f73"
          type="car"
          from="B0B1"
          to="B2A2"
          probability="0.002264"
          departLane="random"
          departSpeed="random"/>
        
    <flow id="f74"
          type="car"
          from="A0B0"
          to="B2B1"
          probability="0.003170"
          departLane="random"
          departSpeed="random"/>
        
    <flow id="f75"
          type="car"
          from="A2A1"
          to="C1C2"
          probability="0.001132"
          departLane="random"
          departSpeed="random"/>
        
    <flow id="f76"
          type="car"
          from="C1C0"
          to="A0B0"
          probability="0.001132"
          departLane="random"
          departSpeed="random"/>
        
    <flow id="f77"
          type="car"
          from="A2A1"
          to="B2C2"
          probability="0.002038"
          departLane="random"
          departSpeed="random"/>
        
    <flow id="f78"
          type="car"
          from="A2A1"
          to="A1A2"
          probability="0.001359"
          departLane="random"
          departSpeed="random"/>
        
    <flow id="f79"
          type="car"
          from="C2B2"
          to="B1C1"
          probability="0.000906"
          departLane="random"
          departSpeed="random"/>
        
    <flow id="f80"
          type="car"
          from="B1B0"
          to="C0C1"
          probability="0.001812"
          departLane="random"
          departSpeed="random"/>
        
    <flow id="f81"
          type="car"
          from="C1B1"
          to="A1B1"
          probability="0.000906"
          departLane="random"
          departSpeed="random"/>
        
    <flow id="f82"
          type="car"
          from="B1A1"
          to="B1B0"
          probability="0.001359"
          departLane="random"
          departSpeed="random"/>
        
    <flow id="f83"
          type="car"
          from="C2C1"
          to="A1A0"
          probability="0.002264"
          departLane="random"
          departSpeed="random"/>
        
    <flow id="f84"
          type="car"
          from="B0C0"
          to="B0B1"
          probability="0.002491"
          departLane="random"
          departSpeed="random"/>
        
    <flow id="f85"
          type="car"
          from="C1C0"
          to="A2A1"
          probability="0.001812"
          departLane="random"
          departSpeed="random"/>
        
    <flow id="f86"
          type="car"
          from="A1B1"
          to="B1A1"
          probability="0.000906"
          departLane="random"
          departSpeed="random"/>
        
    <flow id="f87"
          type="car"
          from="B1A1"
          to="A2B2"
          probability="0.002038"
          departLane="random"
          departSpeed="random"/>
        
    <flow id="f88"
          type="car"
          from="B1A1"
          to="C1C0"
          probability="0.002038"
          departLane="random"
          departSpeed="random"/>
        
    <flow id="f89"
          type="car"
          from="B1C1"
          to="A0B0"
          probability="0.001585"
          departLane="random"
          departSpeed="random"/>
        
    <flow id="f90"
          type="car"
          from="C2C1"
          to="C2B2"
          probability="0.000453"
          departLane="random"
          departSpeed="random"/>
        
    <flow id="f91"
          type="car"
          from="C1C0"
          to="A1A2"
          probability="0.002717"
          departLane="random"
          departSpeed="random"/>
        
    <flow id="f92"
          type="car"
          from="B1B0"
          to="A2A1"
          probability="0.001812"
          departLane="random"
          departSpeed="random"/>
        
    <flow id="f93"
          type="car"
          from="B0C0"
          to="A0B0"
          probability="0.001359"
          departLane="random"
          departSpeed="random"/>
        
    <flow id="f94"
          type="car"
          from="B0C0"
          to="C2C1"
          probability="0.002038"
          departLane="random"
          departSpeed="random"/>
        
    <flow id="f95"
          type="car"
          from="A2B2"
          to="C0C1"
          probability="0.001585"
          departLane="random"
          departSpeed="random"/>
        
    <flow id="f96"
          type="car"
          from="C2B2"
          to="C2C1"
          probability="0.002717"
          departLane="random"
          departSpeed="random"/>
        
    <flow id="f97"
          type="car"
          from="B1C1"
          to="C0B0"
          probability="0.000906"
          departLane="random"
          departSpeed="random"/>
        
    <flow id="f98"
          type="car"
          from="A1A2"
          to="B0A0"
          probability="0.002717"
          departLane="random"
          departSpeed="random"/>
        
    <flow id="f99"
          type="car"
          from="C2C1"
          to="B1C1"
          probability="0.002038"
          departLane="random"
          departSpeed="random"/>
        
    <flow id="f100"
          type="car"
          from="A0B0"
          to="B2A2"
          probability="0.000679"
          departLane="random"
          departSpeed="random"/>
        
    <flow id="f101"
          type="car"
          from="B1B2"
          to="C1C0"
          probability="0.001132"
          departLane="random"
          departSpeed="random"/>
        
    <flow id="f102"
          type="car"
          from="A1A2"
          to="C2C1"
          probability="0.001812"
          departLane="random"
          departSpeed="random"/>
        
    <flow id="f103"
          type="car"
          from="A0B0"
          to="A1B1"
          probability="0.001132"
          departLane="random"
          departSpeed="random"/>
        
    <flow id="f104"
          type="car"
          from="B2A2"
          to="B2C2"
          probability="0.001359"
          departLane="random"
          departSpeed="random"/>
        
    <flow id="f105"
          type="car"
          from="A2A1"
          to="A1A0"
          probability="0.001359"
          departLane="random"
          departSpeed="random"/>
        
    <flow id="f106"
          type="car"
          from="C1C2"
          to="A2A1"
          probability="0.000906"
          departLane="random"
          departSpeed="random"/>
        
    <flow id="f107"
          type="car"
          from="B1A1"
          to="B2A2"
          probability="0.001812"
          departLane="random"
          departSpeed="random"/>
        
    <flow id="f108"
          type="car"
          from="B1B2"
          to="C2B2"
          probability="0.002038"
          departLane="random"
          departSpeed="random"/>
        
    <flow id="f109"
          type="car"
          from="A2A1"
          to="B0C0"
          probability="0.001359"
          departLane="random"
          departSpeed="random"/>
        
    <flow id="f110"
          type="car"
          from="B2C2"
          to="B0A0"
          probability="0.001812"
          departLane="random"
          departSpeed="random"/>
        
    <flow id="f111"
          type="car"
          from="B0A0"
          to="C0C1"
          probability="0.000906"
          departLane="random"
          departSpeed="random"/>
        
    <flow id="f112"
          type="car"
          from="A0B0"
          to="B1A1"
          probability="0.000906"
          departLane="random"
          departSpeed="random"/>
        
    <flow id="f113"
          type="car"
          from="C1C0"
          to="B2C2"
          probability="0.001132"
          departLane="random"
          departSpeed="random"/>
        
    <flow id="f114"
          type="car"
          from="B2A2"
          to="C2C1"
          probability="0.001359"
          departLane="random"
          departSpeed="random"/>
        
    <flow id="f115"
          type="car"
          from="C1B1"
          to="B0A0"
          probability="0.001812"
          departLane="random"
          departSpeed="random"/>
        
    <flow id="f116"
          type="car"
          from="B2B1"
          to="C2B2"
          probability="0.001585"
          departLane="random"
          departSpeed="random"/>
        
    <flow id="f117"
          type="car"
          from="A1A2"
          to="A1A0"
          probability="0.001132"
          departLane="random"
          departSpeed="random"/>
        
    <flow id="f118"
          type="car"
          from="A1A0"
          to="B1C1"
          probability="0.001585"
          departLane="random"
          departSpeed="random"/>
        
    <flow id="f119"
          type="car"
          from="A2B2"
          to="B2A2"
          probability="0.000906"
          departLane="random"
          departSpeed="random"/>
        
    <flow id="f120"
          type="car"
          from="C0B0"
          to="A1B1"
          probability="0.000906"
          departLane="random"
          departSpeed="random"/>
        
    <flow id="f121"
          type="car"
          from="B2B1"
          to="A2B2"
          probability="0.002944"
          departLane="random"
          departSpeed="random"/>
        
    <flow id="f122"
          type="car"
          from="B1B0"
          to="C1C2"
          probability="0.001812"
          departLane="random"
          departSpeed="random"/>
        
    <flow id="f123"
          type="car"
          from="C1C0"
          to="A1A0"
          probability="0.001585"
          departLane="random"
          departSpeed="random"/>
        
    <flow id="f124"
          type="car"
          from="A0A1"
          to="C0C1"
          probability="0.001812"
          departLane="random"
          departSpeed="random"/>
        
    <flow id="f125"
          type="car"
          from="C0B0"
          to="B1C1"
          probability="0.002717"
          departLane="random"
          departSpeed="random"/>
        
    <flow id="f126"
          type="car"
          from="A0B0"
          to="C1C2"
          probability="0.002264"
          departLane="random"
          departSpeed="random"/>
        
    <flow id="f127"
          type="car"
          from="C1C2"
          to="B1C1"
          probability="0.001132"
          departLane="random"
          departSpeed="random"/>
        
    <flow id="f128"
          type="car"
          from="B0A0"
          to="C1C2"
          probability="0.000679"
          departLane="random"
          departSpeed="random"/>
        
    <flow id="f129"
          type="car"
          from="C1B1"
          to="C1C0"
          probability="0.001359"
          departLane="random"
          departSpeed="random"/>
        
    <flow id="f130"
          type="car"
          from="C0C1"
          to="C1C2"
          probability="0.000906"
          departLane="random"
          departSpeed="random"/>
        
    <flow id="f131"
          type="car"
          from="B0C0"
          to="B2A2"
          probability="0.001812"
          departLane="random"
          departSpeed="random"/>
        
    <flow id="f132"
          type="car"
          from="A1A2"
          to="C2B2"
          probability="0.001585"
          departLane="random"
          departSpeed="random"/>
        
    <flow id="f133"
          type="car"
          from="C1C0"
          to="C2C1"
          probability="0.001359"
          departLane="random"
          departSpeed="random"/>
        
    <flow id="f134"
          type="car"
          from="C1B1"
          to="C1C2"
          probability="0.001585"
          departLane="random"
          departSpeed="random"/>
        
    <flow id="f135"
          type="car"
          from="B0A0"
          to="C2B2"
          probability="0.001132"
          departLane="random"
          departSpeed="random"/>
        
    <flow id="f136"
          type="car"
          from="C1B1"
          to="A2B2"
          probability="0.001812"
          departLane="random"
          departSpeed="random"/>
        
    <flow id="f137"
          type="car"
          from="C0C1"
          to="A1A0"
          probability="0.001132"
          departLane="random"
          departSpeed="random"/>
        
    <flow id="f138"
          type="car"
          from="A2A1"
          to="C1B1"
          probability="0.002038"
          departLane="random"
          departSpeed="random"/>
        
    <flow id="f139"
          type="car"
          from="B1B0"
          to="B0A0"
          probability="0.000906"
          departLane="random"
          departSpeed="random"/>
        
    <flow id="f140"
          type="car"
          from="C1B1"
          to="A2A1"
          probability="0.000906"
          departLane="random"
          departSpeed="random"/>
        
    <flow id="f141"
          type="car"
          from="B0A0"
          to="C1C0"
          probability="0.000906"
          departLane="random"
          departSpeed="random"/>
        
    <flow id="f142"
          type="car"
          from="C2C1"
          to="A2B2"
          probability="0.001812"
          departLane="random"
          departSpeed="random"/>
        
    <flow id="f143"
          type="car"
          from="C2B2"
          to="A1A0"
          probability="0.001812"
          departLane="random"
          departSpeed="random"/>
        
    <flow id="f144"
          type="car"
          from="C2C1"
          to="A1B1"
          probability="0.000679"
          departLane="random"
          departSpeed="random"/>
        
    <flow id="f145"
          type="car"
          from="C0B0"
          to="B0A0"
          probability="0.002264"
          departLane="random"
          departSpeed="random"/>
        
    <flow id="f146"
          type="car"
          from="B2A2"
          to="B1B2"
          probability="0.002264"
          departLane="random"
          departSpeed="random"/>
        
    <flow id="f147"
          type="car"
          from="A2B2"
          to="C0B0"
          probability="0.000906"
          departLane="random"
          departSpeed="random"/>
        
    <flow id="f148"
          type="car"
          from="B0B1"
          to="A0B0"
          probability="0.001359"
          departLane="random"
          departSpeed="random"/>
        
    <flow id="f149"
          type="car"
          from="B2B1"
          to="B0A0"
          probability="0.001132"
          departLane="random"
          departSpeed="random"/>
        
    <flow id="f150"
          type="car"
          from="B0A0"
          to="B0C0"
          probability="0.001812"
          departLane="random"
          departSpeed="random"/>
        
    <flow id="f151"
          type="car"
          from="B0C0"
          to="B0A0"
          probability="0.002264"
          departLane="random"
          departSpeed="random"/>
        
    <flow id="f152"
          type="car"
          from="A1A2"
          to="B1A1"
          probability="0.000906"
          departLane="random"
          departSpeed="random"/>
        
    <flow id="f153"
          type="car"
          from="C2B2"
          to="B2C2"
          probability="0.002038"
          departLane="random"
          departSpeed="random"/>
        
    <flow id="f154"
          type="car"
          from="C1C2"
          to="B2A2"
          probability="0.000906"
          departLane="random"
          departSpeed="random"/>
        
    <flow id="f155"
          type="car"
          from="B0A0"
          to="B1C1"
          probability="0.000679"
          departLane="random"
          departSpeed="random"/>
        
    <flow id="f156"
          type="car"
          from="A0A1"
          to="A2B2"
          probability="0.000906"
          departLane="random"
          departSpeed="random"/>
        
    <flow id="f157"
          type="car"
          from="B1A1"
          to="B1C1"
          probability="0.001812"
          departLane="random"
          departSpeed="random"/>
        
    <flow id="f158"
          type="car"
          from="B2B1"
          to="B1B0"
          probability="0.001585"
          departLane="random"
          departSpeed="random"/>
        
    <flow id="f159"
          type="car"
          from="A1A0"
          to="B1B2"
          probability="0.001585"
          departLane="random"